(|SYSTEM|::|VERSION| '(20080430.))
#0Y_ #0Y |CHARSET|::|UTF-8|
#Y(#:|1 1 (DEFUN PUEDEMOVER (S POS COLOR ...) ...)-1|
   #20Y(00 00 00 00 00 00 00 00 20 01 DA 2F 01 DA DC 32 9C C5 19 01)
   (|COMMON-LISP-USER|::|PUEDEMOVER| |SYSTEM|::|REMOVE-OLD-DEFINITIONS|
    #Y(|COMMON-LISP-USER|::|PUEDEMOVER|
       #308Y(00 00 00 00 04 00 00 00 26 05 AD DA 33 01 2F 1E 81 20 9F 59 1E 81
             1B 00 0F 01 AE DC 91 01 2F 80 5D AF DD 38 03 8C C1 80 55 AF DE 72
             D2 8E AC 23 AF DE 72 D2 DF 90 01 33 80 AC E0 B0 73 02 37 B1 31 A1
             5B 1C 0E 6B 01 B0 CB 14 7B 02 7B 01 33 02 23 0F 01 96 03 DE 72 D2
             8E AC 23 AF DE 72 D2 DF 90 01 33 80 94 DA B0 73 02 37 B1 31 A1 5B
             1C 0E 6B 01 B0 C5 14 7B 02 7B 01 33 02 23 0F 01 AE E1 91 01 2F 80
             5D AF E2 38 03 8C C1 80 55 AF DE 72 D2 8E AC 23 AF DE 72 D2 E0 90
             01 34 80 6E E4 B0 73 02 37 B1 31 A1 5B 1C 0E 6B 01 B0 CF 14 7B 02
             7B 01 33 02 23 0F 01 96 03 DE 72 D2 8E AC 23 AF DE 72 D2 E0 90 01
             34 80 56 E3 B0 73 02 37 B1 31 A1 5B 1C 0E 6B 01 B0 CE 14 7B 02 7B
             01 33 02 23 0F 01 0E 01 19 05 DF B0 73 02 37 B1 31 A1 5B 1C FF 61
             6B 01 B0 CA 1B FF 50 E0 B0 73 02 37 B1 31 A1 5B 1C FF 79 6B 01 B0
             CB 1B FF 68 E3 B0 73 02 37 B1 31 A1 5B 1C FF 9F 6B 01 B0 CE 1B FF
             8E E5 B0 73 02 37 B1 31 A1 5B 1C FF B7 6B 01 B0 D0 1B FF A6 19 05)
       (5. |COMMON-LISP-USER|::|RES| 1. (28. 29. 30. 31.) 8. 3. 4. 2.
        (0. 1. 2. 3.) -4. -5. -3.)
       (|COMMON-LISP|::|T| |COMMON-LISP|::|T| |COMMON-LISP|::|T|)
       (|COMMON-LISP-USER|::|S| |COMMON-LISP-USER|::|POS|
        |COMMON-LISP-USER|::|COLOR| |COMMON-LISP-USER|::|COSTO|)
       |COMMON-LISP|::|NIL| 1))
   (|COMMON-LISP|::|T| |COMMON-LISP|::|T| |COMMON-LISP|::|T|))
#Y(#:|1 1 (DEFUN PUEDECOMER (S POS COLOR ...) ...)-2|
   #20Y(00 00 00 00 00 00 00 00 20 01 DA 2F 01 DA DC 32 9C C5 19 01)
   (|COMMON-LISP-USER|::|PUEDECOMER| |SYSTEM|::|REMOVE-OLD-DEFINITIONS|
    #Y(|COMMON-LISP-USER|::|PUEDECOMER|
       #524Y(00 00 00 00 04 00 00 00 26 05 AD DA 33 01 2F 1E 81 F8 9F 59 1E 81
             F3 00 0F 01 AE DC 91 01 2F 80 91 AF DD 38 03 8C C1 80 89 AF DE 72
             D2 8E AC 3D AF DE 72 D2 DF 90 01 33 81 14 E0 B0 73 02 37 B1 31 A1
             5B 1C 28 E1 B0 73 02 37 B1 31 A1 5B 1D 1D E1 B0 73 02 37 B1 31 A1
             78 AF 90 01 2F 0F 6B 01 B0 E0 CC 14 7B 03 7B 01 33 02 23 0F 01 96
             03 DE 72 D2 8E AC 3D AF DE 72 D2 DF 90 01 33 80 FE E2 B0 73 02 37
             B1 31 A1 5B 1C 28 DA B0 73 02 37 B1 31 A1 5B 1D 1D DA B0 73 02 37
             B1 31 A1 78 AF 90 01 2F 0F 6B 01 B0 E2 C5 14 7B 03 7B 01 33 02 23
             0F 01 AE E3 91 01 2F 80 91 AF E4 38 03 8C C1 80 89 AF DE 72 D2 8E
             AC 3D AF DE 72 D2 E1 90 01 34 80 DA E5 B0 73 02 37 B1 31 A1 5B 1C
             28 E7 B0 73 02 37 B1 31 A1 5B 1D 1D E7 B0 73 02 37 B1 31 A1 78 AF
             90 01 2F 0F 6B 01 B0 E5 D2 14 7B 03 7B 01 33 02 23 0F 01 96 03 DE
             72 D2 8E AC 3D AF DE 72 D2 E1 90 01 34 80 C4 E8 B0 73 02 37 B1 31
             A1 5B 1C 28 E6 B0 73 02 37 B1 31 A1 5B 1D 1D E6 B0 73 02 37 B1 31
             A1 78 AF 90 01 2F 0F 6B 01 B0 E8 D1 14 7B 03 7B 01 33 02 23 0F 01
             0E 01 19 05 E0 B0 73 02 37 B1 31 A1 5B 1C FF 13 DF B0 73 02 37 B1
             31 A1 5B 1D FF 07 DF B0 73 02 37 B1 31 A1 78 AF 90 01 2F FE F8 6B
             01 B0 E0 CA 1B FE E6 E2 B0 73 02 37 B1 31 A1 5B 1C FF 29 E1 B0 73
             02 37 B1 31 A1 5B 1D FF 1D E1 B0 73 02 37 B1 31 A1 78 AF 90 01 2F
             FF 0E 6B 01 B0 E2 CC 1B FE FC E5 B0 73 02 37 B1 31 A1 5B 1C FF 4D
             E6 B0 73 02 37 B1 31 A1 5B 1D FF 41 E6 B0 73 02 37 B1 31 A1 78 AF
             90 01 2F FF 32 6B 01 B0 E5 D1 1B FF 20 E8 B0 73 02 37 B1 31 A1 5B
             1C FF 63 E9 B0 73 02 37 B1 31 A1 5B 1D FF 57 E9 B0 73 02 37 B1 31
             A1 78 AF 90 01 2F FF 48 6B 01 B0 E8 D4 1B FF 36 19 05)
       (5. |COMMON-LISP-USER|::|RES| 1. (24. 25. 26. 27. 28. 29. 30. 31.) 8. 3.
        7. 4. 9. 2. (0. 1. 2. 3. 4. 5. 6. 7.) -9. -4. -5. -7. -3.)
       (|COMMON-LISP|::|T| |COMMON-LISP|::|T| |COMMON-LISP|::|T|)
       (|COMMON-LISP-USER|::|S| |COMMON-LISP-USER|::|POS|
        |COMMON-LISP-USER|::|COLOR| |COMMON-LISP-USER|::|COSTO|)
       |COMMON-LISP|::|NIL| 1))
   (|COMMON-LISP|::|T| |COMMON-LISP|::|T| |COMMON-LISP|::|T|))
#Y(#:|1 1 (DEFUN GETMOVS (S COLOR) ...)-3|
   #20Y(00 00 00 00 00 00 00 00 20 01 DA 2F 01 DA DC 32 9C C5 19 01)
   (|COMMON-LISP-USER|::|GETMOVS| |SYSTEM|::|REMOVE-OLD-DEFINITIONS|
    #Y(|COMMON-LISP-USER|::|GETMOVS|
       #61Y(00 00 00 00 02 00 00 00 26 03 00 0F 00 AE 63 1B 22 87 01 00 5B 1D
            1A AF 94 01 91 01 2F 13 6B 00 B1 9F 5C 78 B2 A1 5C 5C 78 6E 04 01
            33 02 23 0F 00 83 01 AD 8D 9F 5A 16 02 0E 00 19 03)
       (|COMMON-LISP-USER|::|RES| |COMMON-LISP-USER|::|PUEDEMOVER|)
       (|COMMON-LISP|::|T| |COMMON-LISP|::|T| |COMMON-LISP|::|T|)
       (|COMMON-LISP-USER|::|S| |COMMON-LISP-USER|::|COLOR|)
       |COMMON-LISP|::|NIL| 1))
   (|COMMON-LISP|::|T| |COMMON-LISP|::|T| |COMMON-LISP|::|T|))
#Y(#:|1 1 (DEFUN GETCOMERS (S COLOR) ...)-4|
   #20Y(00 00 00 00 00 00 00 00 20 01 DA 2F 01 DA DC 32 9C C5 19 01)
   (|COMMON-LISP-USER|::|GETCOMERS| |SYSTEM|::|REMOVE-OLD-DEFINITIONS|
    #Y(|COMMON-LISP-USER|::|GETCOMERS|
       #61Y(00 00 00 00 02 00 00 00 26 03 00 0F 00 AE 63 1B 22 87 01 00 5B 1D
            1A AF 94 01 91 01 2F 13 6B 00 B1 9F 5C 78 B2 A1 5C 5C 78 6E 04 01
            33 02 23 0F 00 83 01 AD 8D 9F 5A 16 02 0E 00 19 03)
       (|COMMON-LISP-USER|::|RES| |COMMON-LISP-USER|::|PUEDECOMER|)
       (|COMMON-LISP|::|T| |COMMON-LISP|::|T| |COMMON-LISP|::|T|)
       (|COMMON-LISP-USER|::|S| |COMMON-LISP-USER|::|COLOR|)
       |COMMON-LISP|::|NIL| 1))
   (|COMMON-LISP|::|T| |COMMON-LISP|::|T| |COMMON-LISP|::|T|))
#Y(#:|1 1 (DEFUN GETUNIQUEPOS (MOVIMIENTOS) ...)-5|
   #20Y(00 00 00 00 00 00 00 00 20 01 DA 2F 01 DA DC 32 9C C5 19 01)
   (|COMMON-LISP-USER|::|GETUNIQUEPOS| |SYSTEM|::|REMOVE-OLD-DEFINITIONS|
    #Y(|COMMON-LISP-USER|::|GETUNIQUEPOS|
       #51Y(00 00 00 00 01 00 00 00 26 02 00 0F 00 AD 63 1B 18 87 01 00 78 6B
            00 38 03 8C C1 0B 6B 00 94 01 7B 01 33 02 23 0F 00 83 01 AD 8D 9F
            64 16 02 0E 00 19 02)
       (|COMMON-LISP-USER|::|RES|)
       (|COMMON-LISP|::|T| |COMMON-LISP|::|T| |COMMON-LISP|::|T|)
       (|COMMON-LISP-USER|::|MOVIMIENTOS|) |COMMON-LISP|::|NIL| 1))
   (|COMMON-LISP|::|T| |COMMON-LISP|::|T| |COMMON-LISP|::|T|))
#Y(#:|1 1 (DEFUN ISMOVFROMPOS (MOV POS) ...)-6|
   #20Y(00 00 00 00 00 00 00 00 20 01 DA 2F 01 DA DC 32 9C C5 19 01)
   (|COMMON-LISP-USER|::|ISMOVFROMPOS| |SYSTEM|::|REMOVE-OLD-DEFINITIONS|
    #Y(|COMMON-LISP-USER|::|ISMOVFROMPOS|
       #18Y(00 00 00 00 02 00 00 00 26 03 AD 94 03 33 01 2F 19 03) ()
       (|COMMON-LISP|::|T| |COMMON-LISP|::|NIL| |COMMON-LISP|::|NIL|)
       (|COMMON-LISP-USER|::|MOV| |COMMON-LISP-USER|::|POS|)
       |COMMON-LISP|::|NIL| 1))
   (|COMMON-LISP|::|T| |COMMON-LISP|::|T| |COMMON-LISP|::|T|))
#Y(#:|1 1 (DEFUN GETUNIQUEMOVS (MOVIMIENTOS POS) ...)-7|
   #20Y(00 00 00 00 00 00 00 00 20 01 DA 2F 01 DA DC 32 9C C5 19 01)
   (|COMMON-LISP-USER|::|GETUNIQUEMOVS| |SYSTEM|::|REMOVE-OLD-DEFINITIONS|
    #Y(|COMMON-LISP-USER|::|GETUNIQUEMOVS|
       #43Y(00 00 00 00 02 00 00 00 26 03 00 0F 00 AE 63 1B 10 87 01 00 14 B0
            8B 01 06 AC 0E 00 5D 0F 00 83 01 AD 8D 9F 6C 16 02 0E 00 19 03)
       (|COMMON-LISP-USER|::|RES| |COMMON-LISP-USER|::|ISMOVFROMPOS|)
       (|COMMON-LISP|::|T| |COMMON-LISP|::|T| |COMMON-LISP|::|T|)
       (|COMMON-LISP-USER|::|MOVIMIENTOS| |COMMON-LISP-USER|::|POS|)
       |COMMON-LISP|::|NIL| 1))
   (|COMMON-LISP|::|T| |COMMON-LISP|::|T| |COMMON-LISP|::|T|))
#Y(#:|1 1 (DEFUN SETPIEZA (S COLOR POS ...) ...)-8|
   #20Y(00 00 00 00 00 00 00 00 20 01 DA 2F 01 DA DC 32 9C C5 19 01)
   (|COMMON-LISP-USER|::|SETPIEZA| |SYSTEM|::|REMOVE-OLD-DEFINITIONS|
    #Y(|COMMON-LISP-USER|::|SETPIEZA|
       #22Y(00 00 00 00 04 00 00 00 26 05 AE B1 B1 B1 B1 7B 03 2D 03 00 19 05)
       (|SYSTEM|::|%SETNTH|)
       (|COMMON-LISP|::|T| |COMMON-LISP|::|T| |COMMON-LISP|::|T|)
       (|COMMON-LISP-USER|::|S| |COMMON-LISP-USER|::|COLOR|
        |COMMON-LISP-USER|::|POS| |COMMON-LISP-USER|::|COSTO|)
       |COMMON-LISP|::|NIL| 1))
   (|COMMON-LISP|::|T| |COMMON-LISP|::|T| |COMMON-LISP|::|T|))
#Y(#:|1 1 (DEFUN MOVE (S MOV) ...)-9|
   #20Y(00 00 00 00 00 00 00 00 20 01 DA 2F 01 DA DC 32 9C C5 19 01)
   (|COMMON-LISP-USER|::|MOVE| |SYSTEM|::|REMOVE-OLD-DEFINITIONS|
    #Y(|COMMON-LISP-USER|::|MOVE|
       #57Y(00 00 00 00 02 00 00 00 26 03 AE 31 AE 0F 00 94 01 6B 00 31 A1 0F
            01 6B 00 0E 01 78 94 03 A1 5C 78 73 02 37 0E 01 5C 5C 78 2D 04 02
            6B 00 63 94 03 DD 2D 04 02 0E 00 19 03)
       (|COMMON-LISP-USER|::|RES| |COMMON-LISP-USER|::|FIC|
        |COMMON-LISP-USER|::|SETPIEZA| 0.)
       (|COMMON-LISP|::|T| |COMMON-LISP|::|T| |COMMON-LISP|::|T|)
       (|COMMON-LISP-USER|::|S| |COMMON-LISP-USER|::|MOV|) |COMMON-LISP|::|NIL|
       1))
   (|COMMON-LISP|::|T| |COMMON-LISP|::|T| |COMMON-LISP|::|T|))
#Y(#:|1 1 (DEFUN COME (S MOV) ...)-10|
   #20Y(00 00 00 00 00 00 00 00 20 01 DA 2F 01 DA DC 32 9C C5 19 01)
   (|COMMON-LISP-USER|::|COME| |SYSTEM|::|REMOVE-OLD-DEFINITIONS|
    #Y(|COMMON-LISP-USER|::|COME|
       #32Y(00 00 00 00 02 00 00 00 26 03 AE 31 AE 0F 00 14 63 94 03 A1 5C 5C
            78 73 02 37 DB 2D 04 02 19 03)
       (|COMMON-LISP-USER|::|RES| 0. |COMMON-LISP-USER|::|SETPIEZA|)
       (|COMMON-LISP|::|T| |COMMON-LISP|::|T| |COMMON-LISP|::|T|)
       (|COMMON-LISP-USER|::|S| |COMMON-LISP-USER|::|MOV|) |COMMON-LISP|::|NIL|
       1))
   (|COMMON-LISP|::|T| |COMMON-LISP|::|T| |COMMON-LISP|::|T|))
#Y(#:|1 1 (DEFUN VALUE (S) ...)-11|
   #20Y(00 00 00 00 00 00 00 00 20 01 DA 2F 01 DA DC 32 9C C5 19 01)
   (|COMMON-LISP-USER|::|VALUE| |SYSTEM|::|REMOVE-OLD-DEFINITIONS|
    #Y(|COMMON-LISP-USER|::|VALUE|
       #85Y(00 00 00 00 01 00 00 00 26 02 C5 0F 01 0F 02 AD 63 1B 30 87 01 00
            5B 1D 12 DD 94 01 91 01 2F 0B 6B 02 9E 5C 5C 78 33 02 37 0F 02 9D
            5B 1D 12 DE 94 01 91 01 2F 0B 6B 01 9E 5C 5C 78 33 02 37 0F 01 83
            01 AD 8D 9F 4C 16 02 6B 01 6B 02 73 01 38 AE 61 02 19 02)
       (0. |COMMON-LISP-USER|::|N| |COMMON-LISP-USER|::|R| 2. 1.)
       (|COMMON-LISP|::|T| |COMMON-LISP|::|T| |COMMON-LISP|::|T|)
       (|COMMON-LISP-USER|::|S|) |COMMON-LISP|::|NIL| 1))
   (|COMMON-LISP|::|T| |COMMON-LISP|::|T| |COMMON-LISP|::|T|))
#Y(#:|1 1 (DEFUN MAXVAL (S D A ...) ...)-12|
   #20Y(00 00 00 00 00 00 00 00 20 01 DA 2F 01 DA DC 32 9C C5 19 01)
   (|COMMON-LISP-USER|::|MAXVAL| |SYSTEM|::|REMOVE-OLD-DEFINITIONS|
    #Y(|COMMON-LISP-USER|::|MAXVAL|
       #99Y(00 00 00 00 05 00 00 00 26 06 B0 8E AC 0F 94 05 8E 1A 0A DB B2 61
            02 0F 02 AD 63 1B 07 B1 2F 00 19 06 83 01 AD 8C 9F 35 87 01 00 B3
            AD 70 03 DE 30 05 0F 06 B3 AD 70 03 97 07 B3 B3 6B 06 2D 05 07 0F
            08 78 0E 02 78 91 01 32 04 0E 08 0F 02 B1 0E 02 78 82 01 35 05 B0
            B2 91 01 33 45 16 02 0E 02 19 06)
       (|COMMON-LISP-USER|::|VALUE| -9999. |COMMON-LISP-USER|::|V|
        |COMMON-LISP-USER|::|MOVE| 1. |COMMON-LISP-USER|::|GETMOVS|
        |COMMON-LISP-USER|::|MOVS| |COMMON-LISP-USER|::|MINVAL|
        |COMMON-LISP-USER|::|MINI|)
       (|COMMON-LISP|::|T| |COMMON-LISP|::|T| |COMMON-LISP|::|T|)
       (|COMMON-LISP-USER|::|S| |COMMON-LISP-USER|::|D| |COMMON-LISP-USER|::|A|
        |COMMON-LISP-USER|::|B| |COMMON-LISP-USER|::|MOVIMIENTOS|)
       |COMMON-LISP|::|NIL| 1))
   (|COMMON-LISP|::|T| |COMMON-LISP|::|T| |COMMON-LISP|::|T|))
#Y(#:|1 1 (DEFUN MINVAL (S D A ...) ...)-13|
   #20Y(00 00 00 00 00 00 00 00 20 01 DA 2F 01 DA DC 32 9C C5 19 01)
   (|COMMON-LISP-USER|::|MINVAL| |SYSTEM|::|REMOVE-OLD-DEFINITIONS|
    #Y(|COMMON-LISP-USER|::|MINVAL|
       #100Y(00 00 00 00 05 00 00 00 26 06 B0 8E AC 10 94 05 8E 1A 0B DB B2 61
             02 0F 02 6B 03 63 1B 07 B1 2F 00 19 06 83 01 AD 8C 9F 35 87 01 00
             B3 AD 70 04 DF 30 06 0F 03 B3 AD 70 04 97 07 B3 B3 6B 03 2D 05 07
             0F 08 78 0E 02 78 91 01 31 04 0E 08 0F 02 B0 0E 02 78 82 01 36 04
             14 B2 91 01 33 45 16 02 0E 02 19 06)
       (|COMMON-LISP-USER|::|VALUE| 9999. |COMMON-LISP-USER|::|V|
        |COMMON-LISP-USER|::|MOVS| |COMMON-LISP-USER|::|MOVE| 2.
        |COMMON-LISP-USER|::|GETMOVS| |COMMON-LISP-USER|::|MAXVAL|
        |COMMON-LISP-USER|::|MAXI|)
       (|COMMON-LISP|::|T| |COMMON-LISP|::|T| |COMMON-LISP|::|T|)
       (|COMMON-LISP-USER|::|S| |COMMON-LISP-USER|::|D| |COMMON-LISP-USER|::|A|
        |COMMON-LISP-USER|::|B| |COMMON-LISP-USER|::|MOVIMIENTOS|)
       |COMMON-LISP|::|NIL| 1))
   (|COMMON-LISP|::|T| |COMMON-LISP|::|T| |COMMON-LISP|::|T|))
#Y(#:|1 1 (DEFUN JUEGA (S COLOR D) ...)-14|
   #20Y(00 00 00 00 00 00 00 00 20 01 DA 2F 01 DA DC 32 9C C5 19 01)
   (|COMMON-LISP-USER|::|JUEGA| |SYSTEM|::|REMOVE-OLD-DEFINITIONS|
    #Y(|COMMON-LISP-USER|::|JUEGA|
       #65Y(00 00 00 00 03 00 00 00 26 04 AF AF 30 00 0F 01 AF AF 30 02 0F 03
            14 38 01 31 8E 6B 01 2F 04 0F 05 14 63 1B 15 87 01 00 B1 E0 E1 E2
            6B 01 B1 70 09 6E 05 0A 38 01 31 8E 83 01 AD 8D 9F 67 00 19 06)
       (|COMMON-LISP-USER|::|GETMOVS| |COMMON-LISP-USER|::|MOVS|
        |COMMON-LISP-USER|::|GETCOMERS| |COMMON-LISP-USER|::|CMOVS|
        |COMMON-LISP-USER|::|GETUNIQUEPOS| |COMMON-LISP-USER|::|PIEZAS| 3.
        -9999. 9999. |COMMON-LISP-USER|::|GETUNIQUEMOVS|
        |COMMON-LISP-USER|::|MAXVAL|)
       (|COMMON-LISP|::|T| |COMMON-LISP|::|T| |COMMON-LISP|::|T|)
       (|COMMON-LISP-USER|::|S| |COMMON-LISP-USER|::|COLOR|
        |COMMON-LISP-USER|::|D|)
       |COMMON-LISP|::|NIL| 1))
   (|COMMON-LISP|::|T| |COMMON-LISP|::|T| |COMMON-LISP|::|T|))
