(|SYSTEM|::|VERSION| '(20080430.))
#0Y_ #0Y |CHARSET|::|UTF-8|
#Y(#:|1 1 (DEFUN PUEDEMOVER (S POS COLOR ...) ...)-1|
   #20Y(00 00 00 00 00 00 00 00 20 01 DA 2F 01 DA DC 32 9C C5 19 01)
   (|COMMON-LISP-USER|::|PUEDEMOVER| |SYSTEM|::|REMOVE-OLD-DEFINITIONS|
    #Y(|COMMON-LISP-USER|::|PUEDEMOVER|
       #292Y(00 00 00 00 04 00 00 00 26 05 AD DA 33 01 2F 1E 81 10 9F 59 1E 81
             0B 00 0F 01 AE DC 91 01 2F 80 55 AF DD 72 D2 8E AC 23 AF DD 72 D2
             DE 90 01 33 80 A4 DF B0 73 02 37 B1 31 A1 5B 1C 0E 6B 01 B0 CA 14
             7B 02 7B 01 33 02 23 0F 01 96 03 DD 72 D2 8E AC 23 AF DD 72 D2 DE
             90 01 33 80 8C DA B0 73 02 37 B1 31 A1 5B 1C 0E 6B 01 B0 C5 14 7B
             02 7B 01 33 02 23 0F 01 AE E0 91 01 2F 80 55 AF DD 72 D2 8E AC 23
             AF DD 72 D2 DF 90 01 34 80 6E E2 B0 73 02 37 B1 31 A1 5B 1C 0E 6B
             01 B0 CD 14 7B 02 7B 01 33 02 23 0F 01 96 03 DD 72 D2 8E AC 23 AF
             DD 72 D2 DF 90 01 34 80 56 E1 B0 73 02 37 B1 31 A1 5B 1C 0E 6B 01
             B0 CC 14 7B 02 7B 01 33 02 23 0F 01 0E 01 19 05 DE B0 73 02 37 B1
             31 A1 5B 1C FF 69 6B 01 B0 C9 1B FF 58 DF B0 73 02 37 B1 31 A1 5B
             1C FF 81 6B 01 B0 CA 1B FF 70 E1 B0 73 02 37 B1 31 A1 5B 1C FF 9F
             6B 01 B0 CC 1B FF 8E E3 B0 73 02 37 B1 31 A1 5B 1C FF B7 6B 01 B0
             CE 1B FF A6 19 05)
       (5. |COMMON-LISP-USER|::|RES| 1. 8. 3. 4. 2. -4. -5. -3.)
       (|COMMON-LISP|::|T| |COMMON-LISP|::|T| |COMMON-LISP|::|T|)
       (|COMMON-LISP-USER|::|S| |COMMON-LISP-USER|::|POS|
        |COMMON-LISP-USER|::|COLOR| |COMMON-LISP-USER|::|COSTO|)
       |COMMON-LISP|::|NIL| 1))
   (|COMMON-LISP|::|T| |COMMON-LISP|::|T| |COMMON-LISP|::|T|))
#Y(#:|1 1 (DEFUN GETMOVS (S COLOR) ...)-2|
   #20Y(00 00 00 00 00 00 00 00 20 01 DA 2F 01 DA DC 32 9C C5 19 01)
   (|COMMON-LISP-USER|::|GETMOVS| |SYSTEM|::|REMOVE-OLD-DEFINITIONS|
    #Y(|COMMON-LISP-USER|::|GETMOVS|
       #61Y(00 00 00 00 02 00 00 00 26 03 00 0F 00 AE 63 1B 22 87 01 00 5B 1D
            1A AF 94 01 91 01 2F 13 6B 00 B1 9F 5C 78 B2 A1 5C 5C 78 6E 04 01
            33 02 23 0F 00 83 01 AD 8D 9F 5A 16 02 0E 00 19 03)
       (|COMMON-LISP-USER|::|RES| |COMMON-LISP-USER|::|PUEDEMOVER|)
       (|COMMON-LISP|::|T| |COMMON-LISP|::|T| |COMMON-LISP|::|T|)
       (|COMMON-LISP-USER|::|S| |COMMON-LISP-USER|::|COLOR|)
       |COMMON-LISP|::|NIL| 1))
   (|COMMON-LISP|::|T| |COMMON-LISP|::|T| |COMMON-LISP|::|T|))
#Y(#:|1 1 (DEFUN GETUNIQUEPOS (MOVIMIENTOS) ...)-3|
   #20Y(00 00 00 00 00 00 00 00 20 01 DA 2F 01 DA DC 32 9C C5 19 01)
   (|COMMON-LISP-USER|::|GETUNIQUEPOS| |SYSTEM|::|REMOVE-OLD-DEFINITIONS|
    #Y(|COMMON-LISP-USER|::|GETUNIQUEPOS|
       #51Y(00 00 00 00 01 00 00 00 26 02 00 0F 00 AD 63 1B 18 87 01 00 78 6B
            00 38 03 8C C1 0B 6B 00 94 01 7B 01 33 02 23 0F 00 83 01 AD 8D 9F
            64 16 02 0E 00 19 02)
       (|COMMON-LISP-USER|::|RES|)
       (|COMMON-LISP|::|T| |COMMON-LISP|::|T| |COMMON-LISP|::|T|)
       (|COMMON-LISP-USER|::|MOVIMIENTOS|) |COMMON-LISP|::|NIL| 1))
   (|COMMON-LISP|::|T| |COMMON-LISP|::|T| |COMMON-LISP|::|T|))
#Y(#:|1 1 (DEFUN ISMOVFROMPOS (MOV POS) ...)-4|
   #20Y(00 00 00 00 00 00 00 00 20 01 DA 2F 01 DA DC 32 9C C5 19 01)
   (|COMMON-LISP-USER|::|ISMOVFROMPOS| |SYSTEM|::|REMOVE-OLD-DEFINITIONS|
    #Y(|COMMON-LISP-USER|::|ISMOVFROMPOS|
       #18Y(00 00 00 00 02 00 00 00 26 03 AD 94 03 33 01 2F 19 03) ()
       (|COMMON-LISP|::|T| |COMMON-LISP|::|NIL| |COMMON-LISP|::|NIL|)
       (|COMMON-LISP-USER|::|MOV| |COMMON-LISP-USER|::|POS|)
       |COMMON-LISP|::|NIL| 1))
   (|COMMON-LISP|::|T| |COMMON-LISP|::|T| |COMMON-LISP|::|T|))
#Y(#:|1 1 (DEFUN GETUNIQUEMOVS (MOVIMIENTOS POS) ...)-5|
   #20Y(00 00 00 00 00 00 00 00 20 01 DA 2F 01 DA DC 32 9C C5 19 01)
   (|COMMON-LISP-USER|::|GETUNIQUEMOVS| |SYSTEM|::|REMOVE-OLD-DEFINITIONS|
    #Y(|COMMON-LISP-USER|::|GETUNIQUEMOVS|
       #43Y(00 00 00 00 02 00 00 00 26 03 00 0F 00 AE 63 1B 10 87 01 00 14 B0
            8B 01 06 AC 0E 00 5D 0F 00 83 01 AD 8D 9F 6C 16 02 0E 00 19 03)
       (|COMMON-LISP-USER|::|RES| |COMMON-LISP-USER|::|ISMOVFROMPOS|)
       (|COMMON-LISP|::|T| |COMMON-LISP|::|T| |COMMON-LISP|::|T|)
       (|COMMON-LISP-USER|::|MOVIMIENTOS| |COMMON-LISP-USER|::|POS|)
       |COMMON-LISP|::|NIL| 1))
   (|COMMON-LISP|::|T| |COMMON-LISP|::|T| |COMMON-LISP|::|T|))
#Y(#:|1 1 (DEFUN SETPIEZA (S COLOR POS ...) ...)-6|
   #20Y(00 00 00 00 00 00 00 00 20 01 DA 2F 01 DA DC 32 9C C5 19 01)
   (|COMMON-LISP-USER|::|SETPIEZA| |SYSTEM|::|REMOVE-OLD-DEFINITIONS|
    #Y(|COMMON-LISP-USER|::|SETPIEZA|
       #22Y(00 00 00 00 04 00 00 00 26 05 AE B1 B1 B1 B1 7B 03 2D 03 00 19 05)
       (|SYSTEM|::|%SETNTH|)
       (|COMMON-LISP|::|T| |COMMON-LISP|::|T| |COMMON-LISP|::|T|)
       (|COMMON-LISP-USER|::|S| |COMMON-LISP-USER|::|COLOR|
        |COMMON-LISP-USER|::|POS| |COMMON-LISP-USER|::|COSTO|)
       |COMMON-LISP|::|NIL| 1))
   (|COMMON-LISP|::|T| |COMMON-LISP|::|T| |COMMON-LISP|::|T|))
#Y(#:|1 1 (DEFUN MOVE (S MOV) ...)-7|
   #20Y(00 00 00 00 00 00 00 00 20 01 DA 2F 01 DA DC 32 9C C5 19 01)
   (|COMMON-LISP-USER|::|MOVE| |SYSTEM|::|REMOVE-OLD-DEFINITIONS|
    #Y(|COMMON-LISP-USER|::|MOVE|
       #57Y(00 00 00 00 02 00 00 00 26 03 AE 31 AE 0F 00 94 01 6B 00 31 A1 0F
            01 6B 00 0E 01 78 94 03 A1 5C 78 73 02 37 0E 01 5C 5C 78 2D 04 02
            6B 00 63 94 03 DD 2D 04 02 0E 00 19 03)
       (|COMMON-LISP-USER|::|RES| |COMMON-LISP-USER|::|FIC|
        |COMMON-LISP-USER|::|SETPIEZA| 0.)
       (|COMMON-LISP|::|T| |COMMON-LISP|::|T| |COMMON-LISP|::|T|)
       (|COMMON-LISP-USER|::|S| |COMMON-LISP-USER|::|MOV|) |COMMON-LISP|::|NIL|
       1))
   (|COMMON-LISP|::|T| |COMMON-LISP|::|T| |COMMON-LISP|::|T|))
#Y(#:|1 1 (DEFUN AGREGANIL (TREE) ...)-8|
   #20Y(00 00 00 00 00 00 00 00 20 01 DA 2F 01 DA DC 32 9C C5 19 01)
   (|COMMON-LISP-USER|::|AGREGANIL| |SYSTEM|::|REMOVE-OLD-DEFINITIONS|
    #Y(|COMMON-LISP-USER|::|AGREGANIL|
       #15Y(00 00 00 00 01 00 00 00 26 02 63 9F 5D 19 02) ()
       (|COMMON-LISP|::|T| |COMMON-LISP|::|T| |COMMON-LISP|::|T|)
       (|COMMON-LISP-USER|::|TREE|) |COMMON-LISP|::|NIL| 1))
   (|COMMON-LISP|::|T| |COMMON-LISP|::|T| |COMMON-LISP|::|T|))
#Y(#:|1 1 (DEFUN CREATREE (CANTIDAD) ...)-9|
   #20Y(00 00 00 00 00 00 00 00 20 01 DA 2F 01 DA DC 32 9C C5 19 01)
   (|COMMON-LISP-USER|::|CREATREE| |SYSTEM|::|REMOVE-OLD-DEFINITIONS|
    #Y(|COMMON-LISP-USER|::|CREATREE|
       #36Y(00 00 00 00 01 00 00 00 26 02 00 0F 00 DB 1B 08 6B 00 2F 02 0F 00
            85 00 AC AF 91 01 32 72 16 01 0E 00 19 02)
       (|COMMON-LISP-USER|::|RES| 1. |COMMON-LISP-USER|::|AGREGANIL|)
       (|COMMON-LISP|::|T| |COMMON-LISP|::|T| |COMMON-LISP|::|T|)
       (|COMMON-LISP-USER|::|CANTIDAD|) |COMMON-LISP|::|NIL| 1))
   (|COMMON-LISP|::|T| |COMMON-LISP|::|T| |COMMON-LISP|::|T|))
#Y(#:|1 1 (DEFUN ALPHABETA NIL ...)-10|
   #20Y(00 00 00 00 00 00 00 00 20 01 DA 2F 01 DA DC 32 9C C5 19 01)
   (|COMMON-LISP-USER|::|ALPHABETA| |SYSTEM|::|REMOVE-OLD-DEFINITIONS|
    #Y(|COMMON-LISP-USER|::|ALPHABETA|
       #23Y(00 00 00 00 00 00 00 00 26 01 DA DB DC DD 6E 04 04 38 01 31 8E 19
            01)
       ((((((10.) (11.)) ((9.) (8.))) (((14.) (15.)) ((4.) (5.))))
         ((((10.) (11.)) ((5.) (8.))) (((4.) (15.)) ((4.) (3.)))))
        5. -9999. 9999. |COMMON-LISP-USER|::|MAXVAL|)
       (|COMMON-LISP|::|T| |COMMON-LISP|::|T| |COMMON-LISP|::|T|) ()
       |COMMON-LISP|::|NIL| 1))
   (|COMMON-LISP|::|T| |COMMON-LISP|::|T| |COMMON-LISP|::|T|))
#Y(#:|1 1 (DEFUN VALUE (S) ...)-11|
   #20Y(00 00 00 00 00 00 00 00 20 01 DA 2F 01 DA DC 32 9C C5 19 01)
   (|COMMON-LISP-USER|::|VALUE| |SYSTEM|::|REMOVE-OLD-DEFINITIONS|
    #Y(|COMMON-LISP-USER|::|VALUE|
       #14Y(00 00 00 00 01 00 00 00 26 02 9E 5B 19 02) ()
       (|COMMON-LISP|::|T| |COMMON-LISP|::|NIL| |COMMON-LISP|::|NIL|)
       (|COMMON-LISP-USER|::|S|) |COMMON-LISP|::|NIL| 1))
   (|COMMON-LISP|::|T| |COMMON-LISP|::|T| |COMMON-LISP|::|T|))
#Y(#:|1 1 (DEFUN MAXVAL (S D A ...) ...)-12|
   #20Y(00 00 00 00 00 00 00 00 20 01 DA 2F 01 DA DC 32 9C C5 19 01)
   (|COMMON-LISP-USER|::|MAXVAL| |SYSTEM|::|REMOVE-OLD-DEFINITIONS|
    #Y(|COMMON-LISP-USER|::|MAXVAL|
       #82Y(00 00 00 00 05 00 00 00 26 06 B0 8E AC 13 94 05 8E 1A 0E C6 0F 02
            6B 03 AE 30 04 0F 03 B1 63 1B 07 B1 2F 00 19 06 83 01 AD 8C 9F 20
            87 01 00 6B 02 AD 97 08 B4 B4 B4 6E 05 05 33 01 35 0F 02 B1 6B 02
            82 01 35 05 B0 B2 91 01 33 5A 16 02 0E 02 19 06)
       (|COMMON-LISP-USER|::|VALUE| -9999. |COMMON-LISP-USER|::|V|
        |COMMON-LISP-USER|::|MOVS| |COMMON-LISP-USER|::|GETUNIQUEMOVS|
        |COMMON-LISP-USER|::|MINVAL|)
       (|COMMON-LISP|::|T| |COMMON-LISP|::|T| |COMMON-LISP|::|T|)
       (|COMMON-LISP-USER|::|S| |COMMON-LISP-USER|::|D| |COMMON-LISP-USER|::|A|
        |COMMON-LISP-USER|::|B| |COMMON-LISP-USER|::|PIEZA|)
       |COMMON-LISP|::|NIL| 1))
   (|COMMON-LISP|::|T| |COMMON-LISP|::|T| |COMMON-LISP|::|T|))
#Y(#:|1 1 (DEFUN MINVAL (S D A ...) ...)-13|
   #20Y(00 00 00 00 00 00 00 00 20 01 DA 2F 01 DA DC 32 9C C5 19 01)
   (|COMMON-LISP-USER|::|MINVAL| |SYSTEM|::|REMOVE-OLD-DEFINITIONS|
    #Y(|COMMON-LISP-USER|::|MINVAL|
       #82Y(00 00 00 00 05 00 00 00 26 06 B0 8E AC 13 94 05 8E 1A 0E C6 0F 02
            6B 03 AE 30 04 0F 03 B1 63 1B 07 B1 2F 00 19 06 83 01 AD 8C 9F 20
            87 01 00 6B 02 AD 97 08 B4 B4 B4 6E 05 05 33 01 36 0F 02 B0 6B 02
            82 01 36 04 14 B2 91 01 33 5A 16 02 0E 02 19 06)
       (|COMMON-LISP-USER|::|VALUE| 9999. |COMMON-LISP-USER|::|V|
        |COMMON-LISP-USER|::|MOVS| |COMMON-LISP-USER|::|GETUNIQUEMOVS|
        |COMMON-LISP-USER|::|MAXVAL|)
       (|COMMON-LISP|::|T| |COMMON-LISP|::|T| |COMMON-LISP|::|T|)
       (|COMMON-LISP-USER|::|S| |COMMON-LISP-USER|::|D| |COMMON-LISP-USER|::|A|
        |COMMON-LISP-USER|::|B| |COMMON-LISP-USER|::|PIEZA|)
       |COMMON-LISP|::|NIL| 1))
   (|COMMON-LISP|::|T| |COMMON-LISP|::|T| |COMMON-LISP|::|T|))
#Y(#:|1 1 (DEFUN JUEGA (S COLOR D) ...)-14|
   #20Y(00 00 00 00 00 00 00 00 20 01 DA 2F 01 DA DC 32 9C C5 19 01)
   (|COMMON-LISP-USER|::|JUEGA| |SYSTEM|::|REMOVE-OLD-DEFINITIONS|
    #Y(|COMMON-LISP-USER|::|JUEGA|
       #45Y(00 00 00 00 03 00 00 00 26 04 AF AF 30 00 0F 01 14 2F 02 0F 03 14
            63 1B 0D 87 01 00 B1 DE DF E0 B0 2D 05 07 83 01 AD 8D 9F 6F 00 19
            06)
       (|COMMON-LISP-USER|::|GETMOVS| |COMMON-LISP-USER|::|MOVS|
        |COMMON-LISP-USER|::|GETUNIQUEPOS| |COMMON-LISP-USER|::|PIEZAS| 3.
        -9999. 9999. |COMMON-LISP-USER|::|MAXVAL|)
       (|COMMON-LISP|::|T| |COMMON-LISP|::|T| |COMMON-LISP|::|T|)
       (|COMMON-LISP-USER|::|S| |COMMON-LISP-USER|::|COLOR|
        |COMMON-LISP-USER|::|D|)
       |COMMON-LISP|::|NIL| 1))
   (|COMMON-LISP|::|T| |COMMON-LISP|::|T| |COMMON-LISP|::|T|))
